LAMMPS (29 Aug 2024 - Update 2)
# Set up units and boundaries
units       metal
boundary    p p p
atom_style  atomic

# Read input data
read_data   structure.data
Reading data file ...
  triclinic box = (-12.324462 -57.514156 -16.432616) to (16.432616 65.730464 38.54077) with tilt (-9e-15 4.014459e-15 4.014459e-15)
  reading atoms ...
  15120 atoms

# Define masses for atomic types
mass 1      1.00794  # H
mass 2      106.42  # Pd

pair_style eam/alloy
pair_coeff * * PdH_Zhou_June29_2007_2.eam.alloy H Pd

##################################
# Parameters #
variable    randomSeed equal        40
variable    timeStepLength equal    0.001    # In ps
variable    tDamp equal             0.1      # Thermostat damping (ps)
variable    pDamp equal             1        # Barostat damping (ps)
variable    velocity equal          300      #
variable    startingTemp equal      300      # Initial temperature in K
variable    externalPressure equal  0.0      # External pressure in atm
variable    run1 equal              50000   # Steps
##################################

group Hatoms    type 1
7560 atoms in group Hatoms
compute         Hmsd Hatoms msd com yes

# Set timestep
timestep    0.001

# Starting simulation

thermo_style custom step temp press ke pe etotal vol enthalpy c_Hmsd[*]
thermo_modify flush yes
thermo 100

dump        dump1 all custom 1000 out.dump id type x y z

velocity all create 300 40 mom yes rot yes

# Step 1:
fix         1 all npt temp 300 300 0.1 iso 0 0 1
run         50000
Step          Temp          Press          KinEng         PotEng         TotEng         Volume        Enthalpy      c_Hmsd[1]      c_Hmsd[2]      c_Hmsd[3]      c_Hmsd[4]
0   300            120391.15      586.28524     -45683.052     -45096.766      194834.21     -30456.486      3.1054991e-28  1.2824541e-28  1.1263181e-29  4.500585e-28
Averages over the last 251 of 501 rows, steps 25000 to 50000:
Temp Press KinEng PotEng TotEng Volume Enthalpy c_Hmsd[1] c_Hmsd[2] c_Hmsd[3] c_Hmsd[4]
300.075 -3.07112 586.432 -45816 -45229.6 204366 -45230 3.59188 3.92097 4.68919 12.202
Loop time of 782.725 on 8 procs for 50000 steps with 15120 atoms

unfix       1
