LAMMPS (29 Aug 2024 - Update 2)
######################################
# LAMMPS INPUT SCRIPT
# Input file for uniaxial tensile loading of single crystal aluminum
# Mark Tschopp
# To execute, use the syntax "lmp_exe < in.tensile.txt" from command prompt

######################################
# VARIABLES
variable n_iter equal 20000

######################################
# INITIALIZATION
units metal
dimension 3
boundary p p p
atom_style atomic
variable latparam equal 4.05

######################################
# ATOM DEFINITION
lattice  fcc 4.05 orient x 1 0 0 orient y 0 1 0 orient z 0 0 1
Lattice spacing in x,y,z = 4.05 4.05 4.05
region whole block 0 10 0 10 0 10
create_box 1 whole
Created orthogonal box = (0 0 0) to (40.5 40.5 40.5)
create_atoms 1 region whole
Created 4000 atoms

######################################
# DEFINE INTERATOMIC POTENTIAL
pair_style eam/alloy
pair_coeff * * Al99.eam.alloy Al

######################################
# DEFINE COMPUTES
compute csym all centro/atom fcc
compute peratom all pe/atom

######################################
# EQUILIBRATION
reset_timestep 0
timestep 0.001
velocity all create 300 12345 mom yes rot no
fix 1 all npt temp 300 300 1 iso 0 0 1 drag 1

# Set thermo output
thermo 1000
thermo_style custom step lx ly lz press pxx pyy pzz pe temp

# Run for at least 10 picosecond (assuming 1 fs timestep)
run 10000
Step           Lx             Ly             Lz           Press           Pxx            Pyy            Pzz           PotEng          Temp
0   40.5           40.5           40.5           2496.1233      2446.9902      2534.6541      2506.7256     -13440          300
Averages over the last 6 of 11 rows, steps 5000 to 10000:
Lx Ly Lz Press Pxx Pyy Pzz PotEng Temp
40.6107 40.6107 40.6107 -15.7761 -3.12065 -30.5544 -13.6533 -13320.4 230.275
Loop time of 42.5561 on 8 procs for 10000 steps with 4000 atoms

unfix 1

# Store final cell length for strain calculations
variable tmp equal "lx"
variable L0 equal 40.625511796505
Initial Length, L0: 40.625511796505

######################################
# DEFORMATION
reset_timestep 0

fix 1 all npt temp 300 300 1 y 0 0 1 z 0 0 1 drag 1
variable srate equal 1.0e10
variable srate1 equal "v_srate / 1.0e12"
fix 2 all deform 1 x erate 0.01 units box remap x

# Output strain and stress info to file
# for units metal, pressure is in [bars] = 100 [kPa] = 1/10000 [GPa]
# p2, p3, p4 are in GPa
variable strain equal "(lx - v_L0)/v_L0"
variable p1 equal "v_strain"
variable p2 equal "-pxx/10000"
variable p3 equal "-pyy/10000"
variable p4 equal "-pzz/10000"

# Use cfg for AtomEye
dump 1 all cfg 250 dump.tens_*.cfg mass type xs ys zs c_csym c_peratom fx fy fz
dump_modify 1 element Al

# Display thermo
thermo 1000
thermo_style custom step v_strain temp v_p2 v_p3 v_p4 ke pe press
run 20000
Step        v_strain         Temp           v_p2           v_p3           v_p4          KinEng         PotEng         Press
0   1.0494037e-15  256.93732      0.010582337    0.0093933101   0.017659345    132.81381     -13308.876     -125.44997
Averages over the last 11 of 21 rows, steps 10000 to 20000:
v_strain Temp v_p2 v_p3 v_p4 KinEng PotEng Press
0.15 336.664 5.01087 0.00643679 0.00424284 174.026 -13050.3 -16738.5
Loop time of 109.194 on 8 procs for 20000 steps with 4000 atoms

######################################
# SIMULATION DONE
print "All done"
All done
