LAMMPS (29 Aug 2024 - Update 2)
units metal
dimension 3
boundary p p s
atom_style atomic

lattice fcc 4.08
Lattice spacing in x,y,z = 4.08 4.08 4.08
variable cubel equal 4
variable fixer1 equal "v_cubel+2"
variable fixer2 equal "v_cubel+1.49"

region box block -4 4 -4 4 -6 1 units lattice
region cbox block -4 4 -4 4 -6 0 units lattice
create_box 1 box
Created orthogonal box = (-16.32 -16.32 -24.48) to (16.32 16.32 4.08)
create_atoms 1 region cbox
Created 1664 atoms
create_atoms 1 single -0.5 0 0.5 units lattice
Created 1 atoms

# Define regions and groups
region hold block INF INF INF INF -6 -5.49 units lattice
region temp block INF INF INF INF -5.49 -4 units lattice
group hold region hold
256 atoms in group hold
group temp region temp
384 atoms in group temp

# Define adatom group by position
region adatom block -1 -0.1 -0.1 0.1 0.4 0.6 units lattice
group adatom region adatom
1 atoms in group adatom

pair_style eam
pair_coeff * * Au_u3.eam
Reading eam potential file Au_u3.eam with DATE: 2007-06-11

timestep        0.005
compute         new all temp
velocity        temp create 300 12345
fix heater temp temp/rescale 1 850 850 5 1
fix nve all nve
fix freeze hold setforce 0 0 0

# MSD tracking
compute msd_adatom adatom msd
fix msdout all ave/time 10 100 1000 c_msd_adatom[4] file msd_adatom.txt

# Energy logging
variable e     equal pe
variable k     equal ke
variable t     equal etotal
variable T     equal temp
fix energy all ave/time 1 50 50 v_k v_e v_t v_T file energy_avg.txt

minimize 1.0e-4 1.0e-6 1000 10000
Step          Temp          E_pair         E_mol          TotEng         Press          Volume
0   69.050481     -6412.7381      0             -6397.8861     -21771.25       28259.687
Loop time of 0.00151389 on 8 procs for 3 steps with 1665 atoms

Minimization stats:
  Stopping criterion = energy tolerance
  Energy initial, next-to-last, final =
  Force two-norm initial, final = 7.5009241 1.1906475
  Force max component initial, final = 1.7440699 0.47805548
  Final line search alpha, max atom move = 0.10167148 0.048604607
  Iterations, force evaluations = 3 3

# Dump every 1000 steps
dump eve all custom 1000 dump.Au.lammpstrj id type xu yu zu
dump_modify eve sort id

thermo 50
run 50000
Step          Temp          E_pair         E_mol          TotEng         Press          Volume
3   69.050481     -6416.8923      0             -6402.0403     -17977.241      27940.076
Averages over the last 501 of 1002 rows, steps 25050 to 50003:
Temp E_pair E_mol TotEng Press Volume
716.043 -6242.93 0 -6088.92 -11440.9 28161.5
Loop time of 106.863 on 8 procs for 50000 steps with 1665 atoms
